resultados/CN12/cn15_160_volts.csv
Bus, BasekV, Node1, Magnitude1, Angle1, pu1, Node2, Magnitude2, Angle2, pu2, Node3, Magnitude3, Angle3, pu3
"SCN_CN15_9199_CEI77A_ATV", 13.8, 1,    7920.93,   -0.3,   0.99416, 2,    7920.93, -120.3,   0.99416, 3,    7920.93,  119.7,   0.99416
"SCN_CN15_9153_CEI109", 13.8, 1,    5630.31,   -5.4,   0.70667, 2,     5630.3, -125.4,   0.70666, 3,     5630.3,  114.6,   0.70666
"SCN_CN15_9154_CEI109", 13.8, 1,    5630.35,   -5.4,   0.70667, 2,    5630.34, -125.4,   0.70667, 3,    5630.34,  114.6,   0.70667
"SCN_CN15_9098_CEI131_ATV", 13.8, 1,    5728.34,   -4.9,   0.71897, 2,    5728.33, -124.9,   0.71897, 3,    5728.33,  115.1,   0.71897
"SCN_CN15_9097_CEI131_ATV", 13.8, 1,    5728.34,   -4.9,   0.71897, 2,    5728.33, -124.9,   0.71897, 3,    5728.33,  115.1,   0.71897
"SCN_CN15_9079_CEI201_ATV", 13.8, 1,     5837.6,   -4.4,   0.73268, 2,    5837.59, -124.4,   0.73268, 3,    5837.59,  115.6,   0.73268
"SCN_CN15_9080_CEI201_ATV", 13.8, 1,    5837.59,   -4.4,   0.73268, 2,    5837.58, -124.4,   0.73268, 3,    5837.58,  115.6,   0.73268
"SCN_CN15_9356_CEI109", 13.8, 1,    5598.08,   -5.5,   0.70262, 2,    5598.07, -125.5,   0.70262, 3,    5598.07,  114.5,   0.70262
"SCN_CN15_9349_CEI109", 13.8, 1,    5598.64,   -5.5,   0.70269, 2,    5598.63, -125.5,   0.70269, 3,    5598.63,  114.5,   0.70269
"SCN_CN15_9039_CEI201_ATV", 13.8, 1,    5598.91,   -5.5,   0.70272, 2,     5598.9, -125.5,   0.70272, 3,     5598.9,  114.5,   0.70272
"SCN_CN15_9021_CEI201_ATV", 13.8, 1,    5593.84,   -5.5,   0.70209, 2,    5593.83, -125.5,   0.70209, 3,    5593.83,  114.5,   0.70209
"SCN_CN15_9022_CEI201_ATV", 13.8, 1,    5594.07,   -5.5,   0.70212, 2,    5594.06, -125.5,   0.70212, 3,    5594.06,  114.5,   0.70212
"SCN_CN15_9274_CEI109", 13.8, 1,    5677.83,   -5.2,   0.71263, 2,    5677.82, -125.2,   0.71263, 3,    5677.82,  114.8,   0.71263
"SCN_CN15_9275_CEI109", 13.8, 1,    5676.26,   -5.2,   0.71243, 2,    5676.25, -125.2,   0.71243, 3,    5676.25,  114.8,   0.71243
"SCN_CN15_9269_CEI109", 13.8, 1,    5679.38,   -5.2,   0.71282, 2,    5679.37, -125.2,   0.71282, 3,    5679.37,  114.8,   0.71282
"SCN_CN15_9053_CEI201_ATV", 13.8, 1,    5601.39,   -5.5,   0.70304, 2,    5601.39, -125.5,   0.70304, 3,    5601.38,  114.5,   0.70304
"SCN_CN15_9485_CEI109", 13.8, 1,    5601.42,   -5.5,   0.70304, 2,    5601.41, -125.5,   0.70304, 3,    5601.41,  114.5,   0.70304
"SCN_CN15_421165_CEI", 13.8, 1,    5852.34,   -4.4,   0.73453, 2,    5852.33, -124.4,   0.73453, 3,    5852.33,  115.6,   0.73453
"SCN_CN15_421166_CEI", 13.8, 1,    5853.16,   -4.4,   0.73464, 2,    5853.15, -124.4,   0.73463, 3,    5853.15,  115.6,   0.73463
"SCN_CN15_9143_CEI69B", 13.8, 1,    5853.88,   -4.4,   0.73473, 2,    5853.87, -124.4,   0.73472, 3,    5853.87,  115.6,   0.73472
"SCN_CN15_9141_CEI201_ATV", 13.8, 1,    5852.34,   -4.4,   0.73453, 2,    5852.33, -124.4,   0.73453, 3,    5852.33,  115.6,   0.73453
"SCN_CN15_9129_CEI201_ATV", 13.8, 1,    5859.64,   -4.4,   0.73545, 2,    5859.63, -124.4,   0.73545, 3,    5859.63,  115.6,   0.73545
"SCN_CN15_9008_CEI220_ATV", 13.8, 1,    5859.64,   -4.4,   0.73545, 2,    5859.63, -124.4,   0.73545, 3,    5859.63,  115.6,   0.73545
"SCN_CN15_421168_CEI", 13.8, 1,    5719.99,   -5.0,   0.71792, 2,    5719.98, -125.0,   0.71792, 3,    5719.98,  115.0,   0.71792
"SCN_CN15_9015_CEI109", 13.8, 1,    5719.99,   -5.0,   0.71792, 2,    5719.98, -125.0,   0.71792, 3,    5719.98,  115.0,   0.71792
"SCN_CN15_421185_CEI", 13.8, 1,     5759.8,   -4.9,   0.72292, 2,    5759.79, -124.9,   0.72292, 3,    5759.79,  115.1,   0.72292
"SCN_CN15_9162_CEI220_ATV_S", 13.8, 1,    5757.74,   -4.9,   0.72266, 2,    5757.73, -124.9,   0.72266, 3,    5757.73,  115.1,   0.72266
"SCN_CN15_421186_CEI", 13.8, 1,    5761.34,   -4.8,   0.72311, 2,    5761.33, -124.8,   0.72311, 3,    5761.33,  115.2,   0.72311
"SCN_CN15_421187_CEI", 13.8, 1,    5763.15,   -4.8,   0.72334, 2,    5763.14, -124.8,   0.72334, 3,    5763.14,  115.2,   0.72334
"SCN_CN15_421169_CEI", 13.8, 1,    5765.71,   -4.8,   0.72366, 2,    5765.71, -124.8,   0.72366, 3,    5765.71,  115.2,   0.72366
"SCN_CN15_9012_CEI120", 13.8, 1,    5764.19,   -4.8,   0.72347, 2,    5764.18, -124.8,   0.72347, 3,    5764.18,  115.2,   0.72347
"SCN_CN15_421170_CEI", 13.8, 1,    5777.75,   -4.8,   0.72517, 2,    5777.75, -124.8,   0.72517, 3,    5777.75,  115.2,   0.72517
"SCN_CN15_421171_CEI", 13.8, 1,    5777.75,   -4.8,   0.72517, 2,    5777.75, -124.8,   0.72517, 3,    5777.75,  115.2,   0.72517
"SCN_CN15_421172_CEI", 13.8, 1,    5777.75,   -4.8,   0.72517, 2,    5777.75, -124.8,   0.72517, 3,    5777.75,  115.2,   0.72517
"SCN_CN15_421173_CEI", 13.8, 1,    5777.75,   -4.8,   0.72517, 2,    5777.75, -124.8,   0.72517, 3,    5777.75,  115.2,   0.72517
"SCN_CN15_421174_CEI", 13.8, 1,    5777.75,   -4.8,   0.72517, 2,    5777.75, -124.8,   0.72517, 3,    5777.75,  115.2,   0.72517
"SCN_CN15_421175_CEI", 13.8, 1,    5788.25,   -4.7,   0.72649, 2,    5788.24, -124.7,   0.72649, 3,    5788.24,  115.3,   0.72649
"SCN_CN15_421176_CEI", 13.8, 1,    5788.25,   -4.7,   0.72649, 2,    5788.24, -124.7,   0.72649, 3,    5788.24,  115.3,   0.72649
"SCN_CN15_421177_CEI", 13.8, 1,    5788.25,   -4.7,   0.72649, 2,    5788.24, -124.7,   0.72649, 3,    5788.24,  115.3,   0.72649
"SCN_CN15_421178_CEI", 13.8, 1,    5788.25,   -4.7,   0.72649, 2,    5788.24, -124.7,   0.72649, 3,    5788.24,  115.3,   0.72649
"SCN_CN15_421179_CEI", 13.8, 1,    5810.49,   -4.7,   0.72928, 2,    5810.48, -124.7,   0.72928, 3,    5810.48,  115.3,   0.72928
"SCN_CN15_9047_CEI130_ATV", 13.8, 1,    5841.51,   -4.5,   0.73317, 2,     5841.5, -124.5,   0.73317, 3,     5841.5,  115.5,   0.73317
"SCN_CN15_421180_CEI", 13.8, 1,    5841.51,   -4.5,   0.73317, 2,     5841.5, -124.5,   0.73317, 3,     5841.5,  115.5,   0.73317
"SCN_CN15_9037_CEI130_ATV", 13.8, 1,    5894.89,   -4.4,   0.73987, 2,    5894.88, -124.4,   0.73987, 3,    5894.88,  115.6,   0.73987
"SCN_CN15_9047_CEI130_ATV_S", 13.8, 1,    5841.51,   -4.5,   0.73317, 2,     5841.5, -124.5,   0.73317, 3,     5841.5,  115.5,   0.73317
"SCN_CN15_421181_CEI", 13.8, 1,    5906.24,   -4.3,    0.7413, 2,    5906.23, -124.3,    0.7413, 3,    5906.23,  115.7,    0.7413
"SCN_CN15_9040_CEI130_ATV", 13.8, 1,    5906.24,   -4.3,    0.7413, 2,    5906.23, -124.3,    0.7413, 3,    5906.23,  115.7,    0.7413
"SCN_CN15_421182_CEI", 13.8, 1,    5906.24,   -4.3,    0.7413, 2,    5906.23, -124.3,    0.7413, 3,    5906.23,  115.7,    0.7413
"SCN_CN15_421183_CEI", 13.8, 1,    5906.24,   -4.3,    0.7413, 2,    5906.23, -124.3,    0.7413, 3,    5906.23,  115.7,    0.7413
"SCN_CN15_421184_CEI", 13.8, 1,    5906.24,   -4.3,    0.7413, 2,    5906.23, -124.3,    0.7413, 3,    5906.23,  115.7,    0.7413
"SCN_CN15_421195_CEI", 13.8, 1,    5958.01,   -4.1,    0.7478, 2,    5958.01, -124.1,   0.74779, 3,    5958.01,  115.9,   0.74779
"SCN_CN15_9022_CEI250_ATV", 13.8, 1,     5955.8,   -4.1,   0.74752, 2,    5955.79, -124.1,   0.74752, 3,    5955.79,  115.9,   0.74752
"SCN_CN15_421196_CEI", 13.8, 1,    5961.15,   -4.1,   0.74819, 2,    5961.14, -124.1,   0.74819, 3,    5961.14,  115.9,   0.74819
"SCN_CN15_9025_CEI130_ATV", 13.8, 1,    5963.72,   -4.1,   0.74851, 2,    5963.71, -124.1,   0.74851, 3,    5963.71,  115.9,   0.74851
"SCN_CN15_421197_CEI", 13.8, 1,    5841.14,   -4.5,   0.73313, 2,    5841.13, -124.5,   0.73313, 3,    5841.13,  115.5,   0.73313
"SCN_CN15_9004_CEI160_ATV", 13.8, 1,    5841.14,   -4.5,   0.73313, 2,    5841.13, -124.5,   0.73313, 3,    5841.13,  115.5,   0.73313
"SCN_CN15_9005_CEI160_ATV", 13.8, 1,    5841.14,   -4.5,   0.73313, 2,    5841.13, -124.5,   0.73313, 3,    5841.13,  115.5,   0.73313
"SCN_CN15_9017_CEI130A_ATV", 13.8, 1,     6181.9,   -3.6,    0.7759, 2,    6181.89, -123.6,    0.7759, 3,    6181.89,  116.4,    0.7759
"SCN_CN15_421206_CEI", 13.8, 1,     6181.9,   -3.6,    0.7759, 2,    6181.89, -123.6,    0.7759, 3,    6181.89,  116.4,    0.7759
"SCN_CN15_9034_CEI130A_ATV", 13.8, 1,    6180.43,   -3.6,   0.77571, 2,    6180.42, -123.6,   0.77571, 3,    6180.42,  116.4,   0.77571
"SCN_CN15_421207_CEI", 13.8, 1,    6180.43,   -3.6,   0.77571, 2,    6180.42, -123.6,   0.77571, 3,    6180.42,  116.4,   0.77571
"SCN_CN15_421208_CEI", 13.8, 1,    6180.43,   -3.6,   0.77571, 2,    6180.42, -123.6,   0.77571, 3,    6180.42,  116.4,   0.77571
"SCN_CN15_421209_CEI", 13.8, 1,    6180.43,   -3.6,   0.77571, 2,    6180.42, -123.6,   0.77571, 3,    6180.42,  116.4,   0.77571
"SCN_CN15_421210_CEI", 13.8, 1,    6180.43,   -3.6,   0.77571, 2,    6180.42, -123.6,   0.77571, 3,    6180.42,  116.4,   0.77571
"SCN_CN15_421211_CEI", 13.8, 1,    6180.43,   -3.6,   0.77571, 2,    6180.42, -123.6,   0.77571, 3,    6180.42,  116.4,   0.77571
"SCN_CN15_421212_CEI", 13.8, 1,    6180.43,   -3.6,   0.77571, 2,    6180.42, -123.6,   0.77571, 3,    6180.42,  116.4,   0.77571
"SCN_CN15_9040_CEI130A_ATV", 13.8, 1,    6180.31,   -3.6,    0.7757, 2,    6180.31, -123.6,    0.7757, 3,    6180.31,  116.4,    0.7757
"SCN_CN15_421213_CEI", 13.8, 1,    6180.31,   -3.6,    0.7757, 2,    6180.31, -123.6,    0.7757, 3,    6180.31,  116.4,    0.7757
"SCN_CN15_421218_CEI", 13.8, 1,    6187.41,   -3.6,   0.77659, 2,     6187.4, -123.6,   0.77659, 3,     6187.4,  116.4,   0.77659
"SCN_CN15_9353_CEI065", 13.8, 1,    6187.41,   -3.6,   0.77659, 2,     6187.4, -123.6,   0.77659, 3,     6187.4,  116.4,   0.77659
"SCN_CN15_421219_CEI", 13.8, 1,    6187.41,   -3.6,   0.77659, 2,     6187.4, -123.6,   0.77659, 3,     6187.4,  116.4,   0.77659
"CN_ALCN15", 13.8, 1,    6187.41,   -3.6,   0.77659, 2,     6187.4, -123.6,   0.77659, 3,     6187.4,  116.4,   0.77659
"SCN_CN15_421227_CEI", 13.8, 1,    5713.92,   -4.6,   0.71716, 2,    5713.91, -124.6,   0.71716, 3,    5713.91,  115.4,   0.71716
"SCN_CN15_9006_CEIRJ013_ATV", 13.8, 1,    5713.92,   -4.6,   0.71716, 2,    5713.91, -124.6,   0.71716, 3,    5713.91,  115.4,   0.71716
"SCN_CN15_9067_CEIRJ006_ATV", 13.8, 1,    5717.63,   -4.6,   0.71762, 2,    5717.62, -124.6,   0.71762, 3,    5717.62,  115.4,   0.71762
"SCN_CN15_9064_CEIRJ006_ATV", 13.8, 1,    5717.63,   -4.6,   0.71762, 2,    5717.62, -124.6,   0.71762, 3,    5717.62,  115.4,   0.71762
"SCN_CN15_421241_CEI", 13.8, 1,    5717.63,   -4.6,   0.71762, 2,    5717.62, -124.6,   0.71762, 3,    5717.62,  115.4,   0.71762
"SCN_CN15_9068_CEIRJ006_ATV", 13.8, 1,    5717.63,   -4.6,   0.71762, 2,    5717.62, -124.6,   0.71762, 3,    5717.62,  115.4,   0.71762
"SCN_CN15_9050_CEI160_ATV", 13.8, 1,    6971.96,   -2.2,   0.87506, 2,    6971.96, -122.2,   0.87506, 3,    6971.96,  117.8,   0.87506
"SCN_CN15_9014_CEI077_ATV", 13.8, 1,    6972.88,   -2.2,   0.87517, 2,    6972.87, -122.2,   0.87517, 3,    6972.87,  117.8,   0.87517
"SCN_CN15_9052_CEI160_ATV", 13.8, 1,    6971.96,   -2.2,   0.87506, 2,    6971.96, -122.2,   0.87506, 3,    6971.96,  117.8,   0.87506
"SCN_CN15_421244_CEI", 13.8, 1,     6971.1,   -2.2,   0.87495, 2,     6971.1, -122.2,   0.87495, 3,     6971.1,  117.8,   0.87495
"SCN_CN15_421245_CEI", 13.8, 1,    6970.21,   -2.2,   0.87484, 2,     6970.2, -122.2,   0.87484, 3,     6970.2,  117.8,   0.87484
"SCN_CN15_9005_CEIRJ012_ATV_S", 13.8, 1,    6969.35,   -2.2,   0.87473, 2,    6969.34, -122.2,   0.87473, 3,    6969.34,  117.8,   0.87473
"SCN_CN15_9024_CEI167_ATV", 13.8, 1,     7009.6,   -2.1,   0.87978, 2,     7009.6, -122.1,   0.87978, 3,     7009.6,  117.9,   0.87978
"SCN_CN15_9025_CEI167_ATV", 13.8, 1,     7009.6,   -2.1,   0.87978, 2,     7009.6, -122.1,   0.87978, 3,     7009.6,  117.9,   0.87978
"SCN_CN15_9002_CEIRJ013_ATV", 13.8, 1,     7009.6,   -2.1,   0.87978, 2,     7009.6, -122.1,   0.87978, 3,     7009.6,  117.9,   0.87978
"SCN_CN15_9037_CEI77A_ATV", 13.8, 1,    7028.15,   -2.1,   0.88211, 2,    7028.14, -122.1,   0.88211, 3,    7028.15,  117.9,   0.88211
"SCN_CN15_9035_CEIRJ006_ATV", 13.8, 1,    7028.15,   -2.1,   0.88211, 2,    7028.14, -122.1,   0.88211, 3,    7028.15,  117.9,   0.88211
"SCN_CN15_9036_CEIRJ006_ATV", 13.8, 1,    7028.15,   -2.1,   0.88211, 2,    7028.14, -122.1,   0.88211, 3,    7028.15,  117.9,   0.88211
"SCN_CN15_9105_CEI201_ATV", 13.8, 1,    5836.52,   -4.4,   0.73255, 2,    5836.51, -124.4,   0.73255, 3,    5836.51,  115.6,   0.73255
"SCN_CN15_9102_CEI201_ATV_S", 13.8, 1,    5836.41,   -4.4,   0.73253, 2,     5836.4, -124.4,   0.73253, 3,     5836.4,  115.6,   0.73253
"SCN_CN15_9017_CEI201_ATV", 13.8, 1,    5593.09,   -5.5,   0.70199, 2,    5593.09, -125.5,   0.70199, 3,    5593.09,  114.5,   0.70199
"SCN_CN15_9019_CEI201_ATV", 13.8, 1,    5593.25,   -5.5,   0.70201, 2,    5593.24, -125.5,   0.70201, 3,    5593.24,  114.5,   0.70201
"SCN_CN15_9019_CEI134C_ATV", 13.8, 1,    5669.06,   -5.1,   0.71153, 2,    5669.05, -125.1,   0.71153, 3,    5669.05,  114.9,   0.71153
"SCN_CN15_9020_CEI134C_ATV", 13.8, 1,    5669.04,   -5.1,   0.71153, 2,    5669.03, -125.1,   0.71152, 3,    5669.03,  114.9,   0.71152
"SCN_CN15_9022_CEI134C_ATV", 13.8, 1,    5668.81,   -5.1,    0.7115, 2,     5668.8, -125.1,    0.7115, 3,     5668.8,  114.9,    0.7115
"SCN_CN15_9021_CEI134C_ATV", 13.8, 1,    5668.75,   -5.1,   0.71149, 2,    5668.74, -125.1,   0.71149, 3,    5668.74,  114.9,   0.71149
"SCN_CN15_9023_CEI134C_ATV", 13.8, 1,    5668.71,   -5.1,   0.71148, 2,     5668.7, -125.1,   0.71148, 3,     5668.7,  114.9,   0.71148
"SCN_CN15_9034_CEI134C_ATV", 13.8, 1,    5668.64,   -5.1,   0.71148, 2,    5668.64, -125.1,   0.71148, 3,    5668.64,  114.9,   0.71148
"SCN_CN15_9035_CEI134C_ATV", 13.8, 1,    5668.59,   -5.1,   0.71147, 2,    5668.58, -125.1,   0.71147, 3,    5668.58,  114.9,   0.71147
"SCN_CN15_9036_CEI134C_ATV", 13.8, 1,    5668.54,   -5.1,   0.71146, 2,    5668.53, -125.1,   0.71146, 3,    5668.53,  114.9,   0.71146
"SCN_CN15_9024_CEI134B_ATV", 13.8, 1,    5673.05,   -5.1,   0.71203, 2,    5673.04, -125.1,   0.71203, 3,    5673.04,  114.9,   0.71203
"SCN_CN15_9027_CEI134B_ATV", 13.8, 1,    5673.02,   -5.1,   0.71203, 2,    5673.01, -125.1,   0.71202, 3,    5673.01,  114.9,   0.71202
"SCN_CN15_9026_CEI134B_ATV", 13.8, 1,       5673,   -5.1,   0.71202, 2,    5672.99, -125.1,   0.71202, 3,    5672.99,  114.9,   0.71202
"SCN_CN15_9028_CEI134B_ATV", 13.8, 1,    5672.99,   -5.1,   0.71202, 2,    5672.98, -125.1,   0.71202, 3,    5672.98,  114.9,   0.71202
"SCN_CN15_9011_CEI134_ATV", 13.8, 1,    5693.06,   -5.0,   0.71454, 2,    5693.05, -125.0,   0.71454, 3,    5693.05,  115.0,   0.71454
"SCN_CN15_9009_CEI134A_ATV", 13.8, 1,    5692.16,   -5.0,   0.71443, 2,    5692.15, -125.0,   0.71443, 3,    5692.15,  115.0,   0.71443
"SCN_CN15_9002_CEI134_ATV", 13.8, 1,    5695.25,   -5.0,   0.71482, 2,    5695.24, -125.0,   0.71482, 3,    5695.24,  115.0,   0.71482
"SCN_CN15_9003_CEI134_ATV", 13.8, 1,    5695.28,   -5.0,   0.71482, 2,    5695.27, -125.0,   0.71482, 3,    5695.27,  115.0,   0.71482
"SCN_CN15_9101_CEI109", 13.8, 1,    5698.39,   -5.0,   0.71521, 2,    5698.39, -125.0,   0.71521, 3,    5698.39,  115.0,   0.71521
"SCN_CN15_9102_CEI109", 13.8, 1,    5698.35,   -5.0,   0.71521, 2,    5698.34, -125.0,    0.7152, 3,    5698.34,  115.0,    0.7152
"SCN_CN15_9103_CEI109", 13.8, 1,    5698.31,   -5.0,    0.7152, 2,     5698.3, -125.0,    0.7152, 3,     5698.3,  115.0,    0.7152
"SCN_CN15_9104_CEI109", 13.8, 1,    5698.28,   -5.0,    0.7152, 2,    5698.27, -125.0,    0.7152, 3,    5698.27,  115.0,    0.7152
"SCN_CN15_9105_CEI109", 13.8, 1,    5698.24,   -5.0,   0.71519, 2,    5698.24, -125.0,   0.71519, 3,    5698.24,  115.0,   0.71519
"SCN_CN15_9106_CEI109", 13.8, 1,    5698.21,   -5.0,   0.71519, 2,     5698.2, -125.0,   0.71519, 3,     5698.2,  115.0,   0.71519
"SCN_CN15_9108_CEI109", 13.8, 1,    5698.18,   -5.0,   0.71518, 2,    5698.17, -125.0,   0.71518, 3,    5698.17,  115.0,   0.71518
"SCN_CN15_9109_CEI109", 13.8, 1,    5698.14,   -5.0,   0.71518, 2,    5698.13, -125.0,   0.71518, 3,    5698.13,  115.0,   0.71518
"SCN_CN15_9110_CEI109", 13.8, 1,     5698.1,   -5.0,   0.71517, 2,     5698.1, -125.0,   0.71517, 3,     5698.1,  115.0,   0.71517
"SCN_CN15_9111_CEI109", 13.8, 1,    5698.07,   -5.0,   0.71517, 2,    5698.06, -125.0,   0.71517, 3,    5698.06,  115.0,   0.71517
"SCN_CN15_9112_CEI109", 13.8, 1,    5698.05,   -5.0,   0.71517, 2,    5698.04, -125.0,   0.71517, 3,    5698.04,  115.0,   0.71517
"SCN_CN15_9113_CEI109", 13.8, 1,    5698.02,   -5.0,   0.71516, 2,    5698.01, -125.0,   0.71516, 3,    5698.01,  115.0,   0.71516
"SCN_CN15_9114_CEI109", 13.8, 1,    5697.99,   -5.0,   0.71516, 2,    5697.98, -125.0,   0.71516, 3,    5697.98,  115.0,   0.71516
"SCN_CN15_9115_CEI109", 13.8, 1,    5697.93,   -5.0,   0.71515, 2,    5697.92, -125.0,   0.71515, 3,    5697.92,  115.0,   0.71515
"SCN_CN15_9116_CEI109", 13.8, 1,     5697.9,   -5.0,   0.71515, 2,    5697.89, -125.0,   0.71515, 3,    5697.89,  115.0,   0.71515
"SCN_CN15_9010_CEI120", 13.8, 1,    5761.47,   -4.8,   0.72313, 2,    5761.46, -124.8,   0.72313, 3,    5761.46,  115.2,   0.72313
"SCN_CN15_9011_CEI120", 13.8, 1,    5763.65,   -4.8,    0.7234, 2,    5763.64, -124.8,    0.7234, 3,    5763.64,  115.2,    0.7234
"SCN_CN15_9045_CEI130_ATV", 13.8, 1,     5841.4,   -4.5,   0.73316, 2,    5841.39, -124.5,   0.73316, 3,    5841.39,  115.5,   0.73316
"SCN_CN15_9044_CEI130_ATV", 13.8, 1,    5841.39,   -4.5,   0.73316, 2,    5841.38, -124.5,   0.73316, 3,    5841.38,  115.5,   0.73316
"SCN_CN15_9043_CEI130_ATV", 13.8, 1,    5841.31,   -4.5,   0.73315, 2,     5841.3, -124.5,   0.73315, 3,     5841.3,  115.5,   0.73315
"SCN_CN15_9014_CEI69B", 13.8, 1,    5980.37,   -4.1,    0.7506, 2,    5980.36, -124.1,    0.7506, 3,    5980.36,  115.9,    0.7506
"SCN_CN15_9015_CEI69B", 13.8, 1,    5981.19,   -4.1,   0.75071, 2,    5981.18, -124.1,    0.7507, 3,    5981.19,  115.9,    0.7507
"SCN_CN15_9559_CEI109", 13.8, 1,    5688.02,   -5.1,   0.71391, 2,    5688.01, -125.1,   0.71391, 3,    5688.01,  114.9,   0.71391
"SCN_CN15_9570_CEI109", 13.8, 1,    5688.01,   -5.1,   0.71391, 2,       5688, -125.1,   0.71391, 3,       5688,  114.9,   0.71391
"SCN_CN15_9558_CEI109", 13.8, 1,    5693.96,   -5.1,   0.71465, 2,    5693.95, -125.1,   0.71465, 3,    5693.95,  114.9,   0.71465
"SCN_CN15_9560_CEI109", 13.8, 1,    5683.64,   -5.1,   0.71336, 2,    5683.63, -125.1,   0.71336, 3,    5683.63,  114.9,   0.71336
"SCN_CN15_9555_CEI109", 13.8, 1,    5700.78,   -5.1,   0.71551, 2,    5700.78, -125.1,   0.71551, 3,    5700.78,  114.9,   0.71551
"SCN_CN15_9552_CEI109", 13.8, 1,    5705.82,   -5.1,   0.71614, 2,    5705.81, -125.1,   0.71614, 3,    5705.81,  114.9,   0.71614
"SCN_CN15_9550_CEI109", 13.8, 1,    5710.22,   -5.0,   0.71669, 2,    5710.21, -125.0,   0.71669, 3,    5710.21,  115.0,   0.71669
"SCN_CN15_9548_CEI109", 13.8, 1,    5714.43,   -5.0,   0.71722, 2,    5714.42, -125.0,   0.71722, 3,    5714.42,  115.0,   0.71722
"SCN_CN15_9017_CEI109", 13.8, 1,    5720.18,   -5.0,   0.71795, 2,    5720.17, -125.0,   0.71794, 3,    5720.17,  115.0,   0.71794
"SCN_CN15_9548_CEI109_S", 13.8, 1,    5714.43,   -5.0,   0.71722, 2,    5714.42, -125.0,   0.71722, 3,    5714.42,  115.0,   0.71722
"SCN_CN15_9016_CEI109", 13.8, 1,    5720.06,   -5.0,   0.71793, 2,    5720.05, -125.0,   0.71793, 3,    5720.05,  115.0,   0.71793
"SCN_CN15_9014_CEI109", 13.8, 1,    5719.88,   -5.0,   0.71791, 2,    5719.87, -125.0,   0.71791, 3,    5719.87,  115.0,   0.71791
"SCN_CN15_9013_CEI109", 13.8, 1,     5719.8,   -5.0,    0.7179, 2,    5719.79, -125.0,    0.7179, 3,    5719.79,  115.0,    0.7179
"SCN_CN15_9012_CEI109", 13.8, 1,    5719.68,   -5.0,   0.71788, 2,    5719.67, -125.0,   0.71788, 3,    5719.67,  115.0,   0.71788
"SCN_CN15_9008_CEI109", 13.8, 1,    5719.59,   -5.0,   0.71787, 2,    5719.58, -125.0,   0.71787, 3,    5719.58,  115.0,   0.71787
"SCN_CN15_9009_CEI109", 13.8, 1,    5719.54,   -5.0,   0.71786, 2,    5719.53, -125.0,   0.71786, 3,    5719.53,  115.0,   0.71786
"SCN_CN15_9010_CEI109", 13.8, 1,     5719.5,   -5.0,   0.71786, 2,    5719.49, -125.0,   0.71786, 3,    5719.49,  115.0,   0.71786
"SCN_CN15_9011_CEI109", 13.8, 1,    5719.45,   -5.0,   0.71785, 2,    5719.44, -125.0,   0.71785, 3,    5719.44,  115.0,   0.71785
"SCN_CN15_9547_CEI109", 13.8, 1,    5714.35,   -5.0,   0.71721, 2,    5714.35, -125.0,   0.71721, 3,    5714.35,  115.0,   0.71721
"SCN_CN15_9007_CEI109", 13.8, 1,    5719.55,   -5.0,   0.71787, 2,    5719.54, -125.0,   0.71786, 3,    5719.54,  115.0,   0.71786
"SCN_CN15_9006_CEI109", 13.8, 1,    5719.52,   -5.0,   0.71786, 2,    5719.52, -125.0,   0.71786, 3,    5719.52,  115.0,   0.71786
"SCN_CN15_9005_CEI109", 13.8, 1,    5719.49,   -5.0,   0.71786, 2,    5719.49, -125.0,   0.71786, 3,    5719.49,  115.0,   0.71786
"SCN_CN15_9004_CEI109", 13.8, 1,    5719.47,   -5.0,   0.71786, 2,    5719.46, -125.0,   0.71786, 3,    5719.46,  115.0,   0.71786
"SCN_CN15_9002_CEI109", 13.8, 1,    5860.15,   -4.4,   0.73551, 2,    5860.14, -124.4,   0.73551, 3,    5860.14,  115.6,   0.73551
"SCN_CN15_9003_CEI109", 13.8, 1,    5860.15,   -4.4,   0.73551, 2,    5860.14, -124.4,   0.73551, 3,    5860.14,  115.6,   0.73551
"SCN_CN15_9001_CEI109", 13.8, 1,    5860.15,   -4.4,   0.73551, 2,    5860.14, -124.4,   0.73551, 3,    5860.14,  115.6,   0.73551
"SCN_CN15_9122_CEI201_ATV", 13.8, 1,    5860.15,   -4.4,   0.73551, 2,    5860.14, -124.4,   0.73551, 3,    5860.14,  115.6,   0.73551
"SCN_CN15_9241_CEI109", 13.8, 1,    5632.26,   -5.3,   0.70691, 2,    5632.25, -125.3,   0.70691, 3,    5632.25,  114.7,   0.70691
"SCN_CN15_9204_CEI109", 13.8, 1,    5632.27,   -5.3,   0.70691, 2,    5632.26, -125.3,   0.70691, 3,    5632.26,  114.7,   0.70691
"SCN_CN15_9242_CEI109", 13.8, 1,    5632.24,   -5.3,   0.70691, 2,    5632.24, -125.3,   0.70691, 3,    5632.24,  114.7,   0.70691
"SCN_CN15_9243_CEI109", 13.8, 1,    5632.23,   -5.3,   0.70691, 2,    5632.22, -125.3,   0.70691, 3,    5632.22,  114.7,   0.70691
"SCN_CN15_9244_CEI109", 13.8, 1,    5632.22,   -5.3,    0.7069, 2,    5632.21, -125.3,    0.7069, 3,    5632.21,  114.7,    0.7069
"SCN_CN15_9245_CEI109", 13.8, 1,     5632.2,   -5.3,    0.7069, 2,    5632.19, -125.3,    0.7069, 3,    5632.19,  114.7,    0.7069
"SCN_CN15_9190_CEI109", 13.8, 1,       5631,   -5.4,   0.70675, 2,    5630.99, -125.4,   0.70675, 3,    5630.99,  114.6,   0.70675
"SCN_CN15_9191_CEI109", 13.8, 1,    5630.98,   -5.4,   0.70675, 2,    5630.97, -125.4,   0.70675, 3,    5630.97,  114.6,   0.70675
"SCN_CN15_9166_CEI109", 13.8, 1,    5630.94,   -5.4,   0.70674, 2,    5630.93, -125.4,   0.70674, 3,    5630.93,  114.6,   0.70674
"SCN_CN15_9167_CEI109", 13.8, 1,    5630.94,   -5.4,   0.70674, 2,    5630.93, -125.4,   0.70674, 3,    5630.93,  114.6,   0.70674
"SCN_CN15_9168_CEI109", 13.8, 1,    5630.93,   -5.4,   0.70674, 2,    5630.92, -125.4,   0.70674, 3,    5630.92,  114.6,   0.70674
"SCN_CN15_9169_CEI109", 13.8, 1,    5630.92,   -5.4,   0.70674, 2,    5630.91, -125.4,   0.70674, 3,    5630.91,  114.6,   0.70674
"SCN_CN15_9183_CEI109", 13.8, 1,     5630.9,   -5.4,   0.70674, 2,    5630.89, -125.4,   0.70674, 3,    5630.89,  114.6,   0.70674
"SCN_CN15_9330_CEI109", 13.8, 1,    5600.99,   -5.5,   0.70298, 2,    5600.98, -125.5,   0.70298, 3,    5600.98,  114.5,   0.70298
"SCN_CN15_9329_CEI109", 13.8, 1,    5601.56,   -5.5,   0.70306, 2,    5601.56, -125.5,   0.70306, 3,    5601.55,  114.5,   0.70306
"SCN_CN15_9328_CEI109", 13.8, 1,    5601.96,   -5.5,   0.70311, 2,    5601.95, -125.5,   0.70311, 3,    5601.95,  114.5,   0.70311
"SCN_CN15_9165_CEI068", 13.8, 1,    6058.69,   -3.9,   0.76043, 2,    6058.68, -123.9,   0.76043, 3,    6058.68,  116.1,   0.76043
"SCN_CN15_9166_CEI068", 13.8, 1,    6058.63,   -3.9,   0.76042, 2,    6058.62, -123.9,   0.76042, 3,    6058.62,  116.1,   0.76042
"SCN_CN15_9327_CEI109", 13.8, 1,    5602.66,   -5.5,   0.70319, 2,    5602.65, -125.5,   0.70319, 3,    5602.65,  114.5,   0.70319
"SCN_CN15_9399_CEI109", 13.8, 1,    5603.31,   -5.5,   0.70328, 2,     5603.3, -125.5,   0.70328, 3,     5603.3,  114.5,   0.70328
"SCN_CN15_9029_CEI160_ATV", 13.8, 1,    5603.27,   -5.5,   0.70327, 2,    5603.26, -125.5,   0.70327, 3,    5603.26,  114.5,   0.70327
"SCN_CN15_9057_CEI075", 13.8, 1,    5749.43,   -4.5,   0.72162, 2,    5749.42, -124.5,   0.72162, 3,    5749.42,  115.5,   0.72162
"SCN_CN15_9054_CEIRJ006_ATV", 13.8, 1,    5749.42,   -4.5,   0.72162, 2,    5749.41, -124.5,   0.72161, 3,    5749.41,  115.5,   0.72161
"SCN_CN15_9040_CEI77A_ATV", 13.8, 1,    7027.93,   -2.1,   0.88208, 2,    7027.93, -122.1,   0.88208, 3,    7027.93,  117.9,   0.88208
"SCN_CN15_9042_CEI77A_ATV", 13.8, 1,    7027.89,   -2.1,   0.88208, 2,    7027.89, -122.1,   0.88208, 3,    7027.89,  117.9,   0.88208
"SCN_CN15_9043_CEI77A_ATV", 13.8, 1,    7027.85,   -2.1,   0.88207, 2,    7027.85, -122.1,   0.88207, 3,    7027.85,  117.9,   0.88207
"SCN_CN15_9190_CEI77A_ATV", 13.8, 1,    7809.53,   -0.6,   0.98018, 2,    7809.53, -120.6,   0.98018, 3,    7809.53,  119.4,   0.98018
"SCN_CN15_9194_CEI77A_ATV", 13.8, 1,    7824.88,   -0.6,   0.98211, 2,    7824.88, -120.6,   0.98211, 3,    7824.88,  119.4,   0.98211
"SCN_CN15_9195_CEI77A_ATV", 13.8, 1,    7850.94,   -0.5,   0.98538, 2,    7850.94, -120.5,   0.98538, 3,    7850.94,  119.5,   0.98538
"SCN_CN15_9196_CEI77A_ATV", 13.8, 1,    7876.85,   -0.5,   0.98863, 2,    7876.85, -120.5,   0.98863, 3,    7876.85,  119.5,   0.98863
"SCN_CN15_9197_CEI77A_ATV", 13.8, 1,    7904.95,   -0.4,   0.99216, 2,    7904.95, -120.4,   0.99216, 3,    7904.95,  119.6,   0.99216
"SCN_CN15_9198_CEI77A_ATV", 13.8, 1,    7913.63,   -0.4,   0.99325, 2,    7913.63, -120.4,   0.99325, 3,    7913.63,  119.6,   0.99325
"SCN_CN15_9200_CEI77A_ATV", 13.8, 1,    7556.31,   -1.2,    0.9484, 2,    7556.31, -121.2,    0.9484, 3,    7556.31,  118.8,    0.9484
"SCN_CN15_9201_CEI77A_ATV", 13.8, 1,    7556.35,   -1.2,    0.9484, 2,    7556.35, -121.2,    0.9484, 3,    7556.35,  118.8,    0.9484
"SCN_CN15_9039_CEI076", 13.8, 1,    6201.46,   -3.6,   0.77835, 2,    6201.45, -123.6,   0.77835, 3,    6201.45,  116.4,   0.77835
"SCN_CN15_9041_CEI076", 13.8, 1,    6201.46,   -3.6,   0.77835, 2,    6201.45, -123.6,   0.77835, 3,    6201.45,  116.4,   0.77835
"SCN_CN15_9042_CEI076", 13.8, 1,    6201.46,   -3.6,   0.77835, 2,    6201.45, -123.6,   0.77835, 3,    6201.45,  116.4,   0.77835
"SCN_CN15_9044_CEI076", 13.8, 1,    6201.46,   -3.6,   0.77835, 2,    6201.45, -123.6,   0.77835, 3,    6201.45,  116.4,   0.77835
"SCN_CN15_9045_CEI076", 13.8, 1,    6201.46,   -3.6,   0.77835, 2,    6201.45, -123.6,   0.77835, 3,    6201.45,  116.4,   0.77835
"SCN_CN15_9057_CEI068", 13.8, 1,    6195.04,   -3.6,   0.77755, 2,    6195.03, -123.6,   0.77754, 3,    6195.03,  116.4,   0.77754
"SCN_CN15_9058_CEI068", 13.8, 1,    6195.04,   -3.6,   0.77754, 2,    6195.03, -123.6,   0.77754, 3,    6195.03,  116.4,   0.77754
"SCN_CN15_9236_CEI068", 13.8, 1,    6195.03,   -3.6,   0.77754, 2,    6195.02, -123.6,   0.77754, 3,    6195.03,  116.4,   0.77754
"SCN_CN15_9240_CEI068", 13.8, 1,    6195.03,   -3.6,   0.77754, 2,    6195.02, -123.6,   0.77754, 3,    6195.02,  116.4,   0.77754
"SCN_CN15_9063_CEI072", 13.8, 1,    6793.98,   -2.5,   0.85272, 2,    6793.98, -122.5,   0.85272, 3,    6793.98,  117.5,   0.85272
"SCN_CN15_CEI_FL_MT_37442", 13.8, 1,    6794.13,   -2.5,   0.85274, 2,    6794.13, -122.5,   0.85274, 3,    6794.13,  117.5,   0.85274
"SCN_CN15_9088_CEI072", 13.8, 1,    6794.13,   -2.5,   0.85274, 2,    6794.13, -122.5,   0.85274, 3,    6794.13,  117.5,   0.85274
"SCN_CN15_9089_CEI072", 13.8, 1,    6798.97,   -2.5,   0.85334, 2,    6798.96, -122.5,   0.85334, 3,    6798.96,  117.5,   0.85334
"SCN_CN15_9062_CEI072", 13.8, 1,    6788.03,   -2.5,   0.85197, 2,    6788.03, -122.5,   0.85197, 3,    6788.03,  117.5,   0.85197
"SCN_CN15_9061_CEI071", 13.8, 1,    6559.44,   -3.0,   0.82328, 2,    6559.43, -123.0,   0.82328, 3,    6559.43,  117.0,   0.82328
"SCN_CN15_9072_CEI071", 13.8, 1,    6559.39,   -3.0,   0.82327, 2,    6559.38, -123.0,   0.82327, 3,    6559.38,  117.0,   0.82327
"SCN_CN15_9073_CEI071", 13.8, 1,    6559.35,   -3.0,   0.82327, 2,    6559.34, -123.0,   0.82327, 3,    6559.34,  117.0,   0.82327
"SCN_CN15_9075_CEI071", 13.8, 1,     6559.3,   -3.0,   0.82326, 2,    6559.29, -123.0,   0.82326, 3,     6559.3,  117.0,   0.82326
"SCN_CN15_9078_CEI071", 13.8, 1,    6559.26,   -3.0,   0.82326, 2,    6559.25, -123.0,   0.82326, 3,    6559.25,  117.0,   0.82326
"SCN_CN15_9079_CEI071", 13.8, 1,    6559.21,   -3.0,   0.82325, 2,     6559.2, -123.0,   0.82325, 3,     6559.2,  117.0,   0.82325
"SCN_CN15_9080_CEI071", 13.8, 1,    6559.18,   -3.0,   0.82325, 2,    6559.17, -123.0,   0.82325, 3,    6559.17,  117.0,   0.82325
"SCN_CN15_9081_CEI071", 13.8, 1,    6559.13,   -3.0,   0.82324, 2,    6559.13, -123.0,   0.82324, 3,    6559.13,  117.0,   0.82324
"SCN_CN15_9082_CEI071", 13.8, 1,    6559.08,   -3.0,   0.82324, 2,    6559.08, -123.0,   0.82324, 3,    6559.08,  117.0,   0.82324
"SCN_CN15_9083_CEI071", 13.8, 1,    6559.04,   -3.0,   0.82323, 2,    6559.04, -123.0,   0.82323, 3,    6559.04,  117.0,   0.82323
"SCN_CN15_9084_CEI071", 13.8, 1,       6559,   -3.0,   0.82323, 2,    6558.99, -123.0,   0.82322, 3,    6558.99,  117.0,   0.82323
"SCN_CN15_9145_CEI220_ATV", 13.8, 1,    5754.34,   -4.9,   0.72223, 2,    5754.33, -124.9,   0.72223, 3,    5754.33,  115.1,   0.72223
"SCN_CN15_9146_CEI220_ATV", 13.8, 1,    5754.24,   -4.9,   0.72222, 2,    5754.23, -124.9,   0.72222, 3,    5754.23,  115.1,   0.72222
"SCN_CN15_9004_CEI220_ATV", 13.8, 1,    5859.94,   -4.4,   0.73549, 2,    5859.93, -124.4,   0.73549, 3,    5859.93,  115.6,   0.73549
"SCN_CN15_9005_CEI220_ATV", 13.8, 1,    5859.93,   -4.4,   0.73549, 2,    5859.92, -124.4,   0.73548, 3,    5859.92,  115.6,   0.73548
"SCN_CN15_9088_CEI201_ATV", 13.8, 1,    5850.73,   -4.4,   0.73433, 2,    5850.72, -124.4,   0.73433, 3,    5850.72,  115.6,   0.73433
"SCN_CN15_9089_CEI201_ATV", 13.8, 1,    5850.75,   -4.4,   0.73433, 2,    5850.74, -124.4,   0.73433, 3,    5850.74,  115.6,   0.73433
"SCN_CN15_9016_CEIRJ003", 13.8, 1,    5851.45,   -4.4,   0.73442, 2,    5851.44, -124.4,   0.73442, 3,    5851.44,  115.6,   0.73442
"SCN_CN15_9089_CEI201_ATV_S", 13.8, 1,    5850.75,   -4.4,   0.73433, 2,    5850.74, -124.4,   0.73433, 3,    5850.74,  115.6,   0.73433
"SCN_CN15_9123_CEI69B", 13.8, 1,    5849.73,   -4.4,   0.73421, 2,    5849.72, -124.4,    0.7342, 3,    5849.72,  115.6,    0.7342
"SCN_CN15_9121_CEI69B", 13.8, 1,    5847.42,   -4.4,   0.73392, 2,    5847.41, -124.4,   0.73391, 3,    5847.41,  115.6,   0.73391
"SCN_CN15_9119_CEI69B", 13.8, 1,    5844.59,   -4.4,   0.73356, 2,    5844.58, -124.4,   0.73356, 3,    5844.58,  115.6,   0.73356
"SCN_CN15_9276_CEI109", 13.8, 1,    5674.34,   -5.2,   0.71219, 2,    5674.33, -125.2,   0.71219, 3,    5674.33,  114.8,   0.71219
"SCN_CN15_9277_CEI109", 13.8, 1,    5672.04,   -5.2,    0.7119, 2,    5672.03, -125.2,    0.7119, 3,    5672.03,  114.8,    0.7119
"SCN_CN15_9118_CEI69B", 13.8, 1,    5841.94,   -4.4,   0.73323, 2,    5841.93, -124.4,   0.73323, 3,    5841.93,  115.6,   0.73323
"SCN_CN15_9114_CEI230_ATV", 13.8, 1,    5835.27,   -4.4,   0.73239, 2,    5835.26, -124.4,   0.73239, 3,    5835.26,  115.6,   0.73239
"SCN_CN15_9113_CEI230_ATV", 13.8, 1,    5830.42,   -4.4,   0.73178, 2,    5830.41, -124.4,   0.73178, 3,    5830.41,  115.6,   0.73178
"SCN_CN15_9112_CEI230_ATV", 13.8, 1,    5821.28,   -4.4,   0.73063, 2,    5821.27, -124.4,   0.73063, 3,    5821.27,  115.6,   0.73063
"SCN_CN15_9111_CEI230_ATV_S", 13.8, 1,    5820.52,   -4.4,   0.73054, 2,    5820.51, -124.4,   0.73054, 3,    5820.51,  115.6,   0.73054
"SCN_CN15_9110_CEI230_ATV", 13.8, 1,    5820.49,   -4.4,   0.73053, 2,    5820.48, -124.4,   0.73053, 3,    5820.48,  115.6,   0.73053
"SCN_CN15_9111_CEI230_ATV", 13.8, 1,    5820.52,   -4.4,   0.73054, 2,    5820.51, -124.4,   0.73054, 3,    5820.51,  115.6,   0.73054
"SCN_CN15_9109_CEI230_ATV", 13.8, 1,    5820.46,   -4.4,   0.73053, 2,    5820.45, -124.4,   0.73053, 3,    5820.45,  115.6,   0.73053
"SCN_CN15_9108_CEI230_ATV", 13.8, 1,    5820.44,   -4.4,   0.73053, 2,    5820.43, -124.4,   0.73053, 3,    5820.43,  115.6,   0.73053
"SCN_CN15_9107_CEI230_ATV", 13.8, 1,    5820.42,   -4.4,   0.73053, 2,    5820.41, -124.4,   0.73053, 3,    5820.41,  115.6,   0.73053
"SCN_CN15_9106_CEI230_ATV", 13.8, 1,     5820.4,   -4.4,   0.73052, 2,    5820.39, -124.4,   0.73052, 3,    5820.39,  115.6,   0.73052
"SCN_CN15_9278_CEI109", 13.8, 1,       5670,   -5.2,   0.71165, 2,    5669.99, -125.2,   0.71165, 3,    5669.99,  114.8,   0.71165
"SCN_CN15_9104_CEI230_ATV", 13.8, 1,    5820.39,   -4.4,   0.73052, 2,    5820.38, -124.4,   0.73052, 3,    5820.38,  115.6,   0.73052
"SCN_CN15_9105_CEI230_ATV", 13.8, 1,    5820.37,   -4.4,   0.73052, 2,    5820.36, -124.4,   0.73052, 3,    5820.36,  115.6,   0.73052
"SCN_CN15_9103_CEI230_ATV", 13.8, 1,    5820.36,   -4.4,   0.73052, 2,    5820.35, -124.4,   0.73052, 3,    5820.35,  115.6,   0.73052
"SCN_CN15_9102_CEI230_ATV", 13.8, 1,    5820.34,   -4.4,   0.73052, 2,    5820.33, -124.4,   0.73052, 3,    5820.33,  115.6,   0.73052
"SCN_CN15_9100_CEI230_ATV", 13.8, 1,    5820.33,   -4.4,   0.73051, 2,    5820.32, -124.4,   0.73051, 3,    5820.32,  115.6,   0.73051
"SCN_CN15_9099_CEI230_ATV", 13.8, 1,    5820.31,   -4.4,   0.73051, 2,     5820.3, -124.4,   0.73051, 3,     5820.3,  115.6,   0.73051
"SCN_CN15_9098_CEI230_ATV", 13.8, 1,     5820.3,   -4.4,   0.73051, 2,    5820.29, -124.4,   0.73051, 3,    5820.29,  115.6,   0.73051
"SCN_CN15_9097_CEI230_ATV", 13.8, 1,    5820.29,   -4.4,   0.73051, 2,    5820.28, -124.4,   0.73051, 3,    5820.28,  115.6,   0.73051
"SCN_CN15_9096_CEI230_ATV", 13.8, 1,    5820.27,   -4.4,   0.73051, 2,    5820.26, -124.4,   0.73051, 3,    5820.26,  115.6,   0.73051
"SCN_CN15_9094_CEI230_ATV", 13.8, 1,    5820.26,   -4.4,   0.73051, 2,    5820.26, -124.4,   0.73051, 3,    5820.26,  115.6,   0.73051
"SCN_CN15_9281_CEI109", 13.8, 1,     5668.5,   -5.2,   0.71146, 2,    5668.49, -125.2,   0.71146, 3,    5668.49,  114.8,   0.71146
"SCN_CN15_9095_CEI230_ATV", 13.8, 1,    5820.26,   -4.4,   0.73051, 2,    5820.25, -124.4,   0.73051, 3,    5820.25,  115.6,   0.73051
"SCN_CN15_9120_CEI230_ATV", 13.8, 1,    5811.09,   -4.4,   0.72935, 2,    5811.08, -124.4,   0.72935, 3,    5811.08,  115.6,   0.72935
"SCN_CN15_9115_CEI230_ATV", 13.8, 1,    5810.93,   -4.4,   0.72934, 2,    5810.92, -124.4,   0.72933, 3,    5810.92,  115.6,   0.72933
"SCN_CN15_9119_CEI230_ATV", 13.8, 1,    5801.91,   -4.4,    0.7282, 2,     5801.9, -124.4,    0.7282, 3,     5801.9,  115.6,    0.7282
"SCN_CN15_9331_CEI109", 13.8, 1,    5600.33,   -5.5,    0.7029, 2,    5600.32, -125.5,    0.7029, 3,    5600.32,  114.5,    0.7029
"SCN_CN15_9332_CEI109", 13.8, 1,    5599.95,   -5.5,   0.70285, 2,    5599.94, -125.5,   0.70285, 3,    5599.94,  114.5,   0.70285
"SCN_CN15_9118_CEI230_ATV", 13.8, 1,    5792.87,   -4.4,   0.72707, 2,    5792.86, -124.4,   0.72707, 3,    5792.86,  115.6,   0.72707
"SCN_CN15_9117_CEI230_ATV", 13.8, 1,    5783.49,   -4.4,   0.72589, 2,    5783.48, -124.4,   0.72589, 3,    5783.48,  115.6,   0.72589
"SCN_CN15_9116_CEI230_ATV", 13.8, 1,    5774.59,   -4.4,   0.72477, 2,    5774.58, -124.4,   0.72477, 3,    5774.58,  115.6,   0.72477
"SCN_CN15_9014_CEIRJ003", 13.8, 1,    5766.05,   -4.4,    0.7237, 2,    5766.04, -124.4,    0.7237, 3,    5766.04,  115.6,    0.7237
"SCN_CN15_9002_CEI075", 13.8, 1,    5764.97,   -4.4,   0.72357, 2,    5764.96, -124.4,   0.72357, 3,    5764.96,  115.6,   0.72357
"SCN_CN15_9003_CEI075", 13.8, 1,    5763.83,   -4.4,   0.72342, 2,    5763.82, -124.4,   0.72342, 3,    5763.82,  115.6,   0.72342
"SCN_CN15_9282_CEI109", 13.8, 1,    5667.07,   -5.2,   0.71128, 2,    5667.06, -125.2,   0.71128, 3,    5667.06,  114.8,   0.71128
"SCN_CN15_9004_CEI075", 13.8, 1,    5762.56,   -4.4,   0.72326, 2,    5762.55, -124.4,   0.72326, 3,    5762.55,  115.6,   0.72326
"SCN_CN15_9052_CEIRJ006_ATV", 13.8, 1,     5763.8,   -4.4,   0.72342, 2,    5763.79, -124.4,   0.72342, 3,    5763.79,  115.6,   0.72342
"SCN_CN15_9005_CEI075", 13.8, 1,    5761.23,   -4.4,    0.7231, 2,    5761.22, -124.4,    0.7231, 3,    5761.22,  115.6,    0.7231
"SCN_CN15_9006_CEI075", 13.8, 1,    5759.65,   -4.5,    0.7229, 2,    5759.64, -124.5,    0.7229, 3,    5759.64,  115.5,    0.7229
"SCN_CN15_9007_CEI075", 13.8, 1,    5758.44,   -4.5,   0.72275, 2,    5758.43, -124.5,   0.72275, 3,    5758.43,  115.5,   0.72275
"SCN_CN15_9008_CEI075", 13.8, 1,    5756.92,   -4.5,   0.72256, 2,    5756.91, -124.5,   0.72256, 3,    5756.91,  115.5,   0.72256
"SCN_CN15_9009_CEI075", 13.8, 1,    5755.43,   -4.5,   0.72237, 2,    5755.42, -124.5,   0.72237, 3,    5755.42,  115.5,   0.72237
"SCN_CN15_9169_CEI230_ATV", 13.8, 1,    5755.42,   -4.5,   0.72237, 2,    5755.41, -124.5,   0.72237, 3,    5755.41,  115.5,   0.72237
"SCN_CN15_9010_CEI075", 13.8, 1,    5755.21,   -4.5,   0.72234, 2,     5755.2, -124.5,   0.72234, 3,     5755.2,  115.5,   0.72234
"SCN_CN15_9011_CEI075", 13.8, 1,    5754.97,   -4.5,   0.72231, 2,    5754.96, -124.5,   0.72231, 3,    5754.96,  115.5,   0.72231
"SCN_CN15_9012_CEI075", 13.8, 1,    5754.74,   -4.5,   0.72228, 2,    5754.72, -124.5,   0.72228, 3,    5754.72,  115.5,   0.72228
"SCN_CN15_9283_CEI109", 13.8, 1,    5664.91,   -5.2,   0.71101, 2,     5664.9, -125.2,   0.71101, 3,     5664.9,  114.8,   0.71101
"SCN_CN15_9013_CEI075", 13.8, 1,    5754.41,   -4.5,   0.72224, 2,     5754.4, -124.5,   0.72224, 3,     5754.4,  115.5,   0.72224
"SCN_CN15_9014_CEI075", 13.8, 1,     5754.1,   -4.5,    0.7222, 2,    5754.09, -124.5,    0.7222, 3,    5754.09,  115.5,    0.7222
"SCN_CN15_9015_CEI075", 13.8, 1,    5753.79,   -4.5,   0.72216, 2,    5753.78, -124.5,   0.72216, 3,    5753.78,  115.5,   0.72216
"SCN_CN15_9016_CEI075", 13.8, 1,    5753.47,   -4.5,   0.72212, 2,    5753.46, -124.5,   0.72212, 3,    5753.46,  115.5,   0.72212
"SCN_CN15_9017_CEI075", 13.8, 1,    5753.17,   -4.5,   0.72209, 2,    5753.16, -124.5,   0.72208, 3,    5753.16,  115.5,   0.72208
"SCN_CN15_9018_CEI075", 13.8, 1,    5752.85,   -4.5,   0.72205, 2,    5752.84, -124.5,   0.72204, 3,    5752.84,  115.5,   0.72204
"SCN_CN15_9019_CEI075", 13.8, 1,    5752.69,   -4.5,   0.72203, 2,    5752.68, -124.5,   0.72202, 3,    5752.68,  115.5,   0.72202
"SCN_CN15_9020_CEI075", 13.8, 1,    5752.53,   -4.5,   0.72201, 2,    5752.52, -124.5,     0.722, 3,    5752.52,  115.5,     0.722
"SCN_CN15_9022_CEI075", 13.8, 1,    5752.25,   -4.5,   0.72197, 2,    5752.24, -124.5,   0.72197, 3,    5752.24,  115.5,   0.72197
"SCN_CN15_9023_CEI075", 13.8, 1,       5752,   -4.5,   0.72194, 2,    5751.99, -124.5,   0.72194, 3,    5751.99,  115.5,   0.72194
"SCN_CN15_9284_CEI109", 13.8, 1,    5663.22,   -5.2,    0.7108, 2,    5663.21, -125.2,    0.7108, 3,    5663.21,  114.8,    0.7108
"SCN_CN15_9024_CEI075", 13.8, 1,    5751.69,   -4.5,    0.7219, 2,    5751.68, -124.5,    0.7219, 3,    5751.68,  115.5,    0.7219
"SCN_CN15_9025_CEI075", 13.8, 1,    5751.42,   -4.5,   0.72187, 2,    5751.41, -124.5,   0.72186, 3,    5751.41,  115.5,   0.72186
"SCN_CN15_9072_CEI230_ATV", 13.8, 1,    5751.39,   -4.5,   0.72186, 2,    5751.38, -124.5,   0.72186, 3,    5751.38,  115.5,   0.72186
"SCN_CN15_9028_CEI075", 13.8, 1,    5750.77,   -4.5,   0.72178, 2,    5750.76, -124.5,   0.72178, 3,    5750.76,  115.5,   0.72178
"SCN_CN15_9029_CEI075", 13.8, 1,    5750.63,   -4.5,   0.72177, 2,    5750.62, -124.5,   0.72177, 3,    5750.62,  115.5,   0.72177
"SCN_CN15_9027_CEI075", 13.8, 1,    5750.92,   -4.5,    0.7218, 2,    5750.91, -124.5,    0.7218, 3,    5750.91,  115.5,    0.7218
"SCN_CN15_9026_CEI075", 13.8, 1,    5751.16,   -4.5,   0.72183, 2,    5751.15, -124.5,   0.72183, 3,    5751.15,  115.5,   0.72183
"SCN_CN15_9030_CEI075", 13.8, 1,    5750.57,   -4.5,   0.72176, 2,    5750.56, -124.5,   0.72176, 3,    5750.56,  115.5,   0.72176
"SCN_CN15_9074_CEI230_ATV", 13.8, 1,    5750.38,   -4.5,   0.72174, 2,    5750.37, -124.5,   0.72173, 3,    5750.37,  115.5,   0.72173
"SCN_CN15_9075_CEI230_ATV", 13.8, 1,    5750.27,   -4.5,   0.72172, 2,    5750.26, -124.5,   0.72172, 3,    5750.26,  115.5,   0.72172
"SCN_CN15_9292_CEI109_S", 13.8, 1,    5660.71,   -5.2,   0.71048, 2,     5660.7, -125.2,   0.71048, 3,     5660.7,  114.8,   0.71048
"SCN_CN15_9076_CEI230_ATV_S", 13.8, 1,     5750.2,   -4.5,   0.72171, 2,    5750.19, -124.5,   0.72171, 3,    5750.19,  115.5,   0.72171
"SCN_CN15_9076_CEI230_ATV", 13.8, 1,     5750.2,   -4.5,   0.72171, 2,    5750.19, -124.5,   0.72171, 3,    5750.19,  115.5,   0.72171
"SCN_CN15_9079_CEI230_ATV", 13.8, 1,    5750.11,   -4.5,    0.7217, 2,     5750.1, -124.5,    0.7217, 3,     5750.1,  115.5,    0.7217
"SCN_CN15_9078_CEI230_ATV", 13.8, 1,    5750.02,   -4.5,   0.72169, 2,    5750.01, -124.5,   0.72169, 3,    5750.01,  115.5,   0.72169
"SCN_CN15_9077_CEI230_ATV", 13.8, 1,    5750.09,   -4.5,    0.7217, 2,    5750.08, -124.5,    0.7217, 3,    5750.08,  115.5,    0.7217
"SCN_CN15_9080_CEI230_ATV", 13.8, 1,    5749.96,   -4.5,   0.72168, 2,    5749.95, -124.5,   0.72168, 3,    5749.95,  115.5,   0.72168
"SCN_CN15_9081_CEI230_ATV", 13.8, 1,    5749.86,   -4.5,   0.72167, 2,    5749.85, -124.5,   0.72167, 3,    5749.85,  115.5,   0.72167
"SCN_CN15_9082_CEI230_ATV", 13.8, 1,    5749.86,   -4.5,   0.72167, 2,    5749.85, -124.5,   0.72167, 3,    5749.85,  115.5,   0.72167
"SCN_CN15_9084_CEI230_ATV", 13.8, 1,    5749.82,   -4.5,   0.72167, 2,    5749.81, -124.5,   0.72166, 3,    5749.81,  115.5,   0.72166
"SCN_CN15_9085_CEI230_ATV", 13.8, 1,    5749.78,   -4.5,   0.72166, 2,    5749.77, -124.5,   0.72166, 3,    5749.77,  115.5,   0.72166
"SCN_CN15_9086_CEI230_ATV", 13.8, 1,    5749.73,   -4.5,   0.72165, 2,    5749.72, -124.5,   0.72165, 3,    5749.72,  115.5,   0.72165
"SCN_CN15_9292_CEI109", 13.8, 1,    5660.71,   -5.2,   0.71048, 2,     5660.7, -125.2,   0.71048, 3,     5660.7,  114.8,   0.71048
"SCN_CN15_9423_CEI109", 13.8, 1,    5660.63,   -5.2,   0.71047, 2,    5660.62, -125.2,   0.71047, 3,    5660.62,  114.8,   0.71047
"SCN_CN15_9087_CEI230_ATV", 13.8, 1,     5749.7,   -4.5,   0.72165, 2,    5749.69, -124.5,   0.72165, 3,    5749.69,  115.5,   0.72165
"SCN_CN15_9083_CEI230_ATV", 13.8, 1,    5749.83,   -4.5,   0.72167, 2,    5749.82, -124.5,   0.72166, 3,    5749.82,  115.5,   0.72166
"SCN_CN15_9088_CEI230_ATV", 13.8, 1,    5749.79,   -4.5,   0.72166, 2,    5749.78, -124.5,   0.72166, 3,    5749.78,  115.5,   0.72166
"SCN_CN15_9090_CEI230_ATV", 13.8, 1,    5749.76,   -4.5,   0.72166, 2,    5749.75, -124.5,   0.72166, 3,    5749.75,  115.5,   0.72166
"SCN_CN15_9084_CEI148_ATV", 13.8, 1,    5582.78,   -5.5,    0.7007, 2,    5582.77, -125.5,    0.7007, 3,    5582.77,  114.5,    0.7007
"SCN_CN15_9083_CEI148_ATV", 13.8, 1,    5583.37,   -5.5,   0.70077, 2,    5583.36, -125.5,   0.70077, 3,    5583.36,  114.5,   0.70077
"SCN_CN15_9086_CEI148_ATV", 13.8, 1,     5582.3,   -5.5,   0.70064, 2,    5582.29, -125.5,   0.70064, 3,    5582.29,  114.5,   0.70064
"SCN_CN15_9100_CEI201_ATV", 13.8, 1,    5836.36,   -4.4,   0.73253, 2,    5836.35, -124.4,   0.73253, 3,    5836.35,  115.6,   0.73253
"SCN_CN15_9102_CEI201_ATV", 13.8, 1,    5836.41,   -4.4,   0.73253, 2,     5836.4, -124.4,   0.73253, 3,     5836.4,  115.6,   0.73253
"SCN_CN15_9087_CEI148_ATV", 13.8, 1,    5581.33,   -5.5,   0.70052, 2,    5581.33, -125.5,   0.70052, 3,    5581.33,  114.5,   0.70052
"SCN_CN15_9088_CEI148_ATV", 13.8, 1,     5581.3,   -5.5,   0.70051, 2,    5581.29, -125.5,   0.70051, 3,    5581.29,  114.5,   0.70051
"SCN_CN15_9090_CEI148_ATV", 13.8, 1,    5581.21,   -5.5,    0.7005, 2,     5581.2, -125.5,    0.7005, 3,     5581.2,  114.5,    0.7005
"SCN_CN15_9424_CEI109", 13.8, 1,    5660.51,   -5.2,   0.71046, 2,     5660.5, -125.2,   0.71045, 3,     5660.5,  114.8,   0.71045
"SCN_CN15_9034_CEI148A_ATV", 13.8, 1,    5580.71,   -5.5,   0.70044, 2,     5580.7, -125.5,   0.70044, 3,     5580.7,  114.5,   0.70044
"SCN_CN15_9033_CEI148A_ATV", 13.8, 1,    5580.14,   -5.5,   0.70037, 2,    5580.13, -125.5,   0.70037, 3,    5580.13,  114.5,   0.70037
"SCN_CN15_9035_CEI148A_ATV", 13.8, 1,    5580.12,   -5.5,   0.70037, 2,    5580.11, -125.5,   0.70036, 3,    5580.11,  114.5,   0.70036
"SCN_CN15_9031_CEI148A_ATV", 13.8, 1,    5579.54,   -5.5,   0.70029, 2,    5579.53, -125.5,   0.70029, 3,    5579.53,  114.5,   0.70029
"SCN_CN15_9030_CEI148A_ATV", 13.8, 1,    5578.99,   -5.5,   0.70022, 2,    5578.99, -125.5,   0.70022, 3,    5578.98,  114.5,   0.70022
"SCN_CN15_9029_CEI148A_ATV_S", 13.8, 1,    5578.94,   -5.5,   0.70022, 2,    5578.93, -125.5,   0.70022, 3,    5578.93,  114.5,   0.70022
"SCN_CN15_9028_CEI148A_ATV", 13.8, 1,    5578.92,   -5.5,   0.70022, 2,    5578.91, -125.5,   0.70021, 3,    5578.91,  114.5,   0.70021
"SCN_CN15_9029_CEI148A_ATV", 13.8, 1,    5578.94,   -5.5,   0.70022, 2,    5578.93, -125.5,   0.70022, 3,    5578.93,  114.5,   0.70022
"SCN_CN15_9032_CEI148A_ATV", 13.8, 1,    5578.91,   -5.5,   0.70021, 2,     5578.9, -125.5,   0.70021, 3,     5578.9,  114.5,   0.70021
"SCN_CN15_9078_CEI201_ATV", 13.8, 1,    5578.87,   -5.5,   0.70021, 2,    5578.87, -125.5,   0.70021, 3,    5578.86,  114.5,   0.70021
"SCN_CN15_9075_CEI201_ATV", 13.8, 1,    5578.84,   -5.5,   0.70021, 2,    5578.83, -125.5,    0.7002, 3,    5578.83,  114.5,    0.7002
"SCN_CN15_9425_CEI109", 13.8, 1,     5660.4,   -5.2,   0.71044, 2,    5660.39, -125.2,   0.71044, 3,    5660.39,  114.8,   0.71044
"SCN_CN15_9025_CEI148A_ATV", 13.8, 1,    5578.46,   -5.5,   0.70016, 2,    5578.45, -125.5,   0.70016, 3,    5578.45,  114.5,   0.70016
"SCN_CN15_9023_CEI148A_ATV_S", 13.8, 1,    5577.43,   -5.6,   0.70003, 2,    5577.42, -125.6,   0.70003, 3,    5577.42,  114.4,   0.70003
"SCN_CN15_9028_CEI69A", 13.8, 1,    5577.41,   -5.6,   0.70003, 2,     5577.4, -125.6,   0.70002, 3,     5577.4,  114.4,   0.70002
"SCN_CN15_9023_CEI148A_ATV", 13.8, 1,    5577.43,   -5.6,   0.70003, 2,    5577.42, -125.6,   0.70003, 3,    5577.42,  114.4,   0.70003
"SCN_CN15_9022_CEI148A_ATV", 13.8, 1,    5577.38,   -5.6,   0.70002, 2,    5577.37, -125.6,   0.70002, 3,    5577.37,  114.4,   0.70002
"SCN_CN15_9021_CEI148A_ATV", 13.8, 1,    5577.33,   -5.6,   0.70002, 2,    5577.32, -125.6,   0.70001, 3,    5577.32,  114.4,   0.70001
"SCN_CN15_9020_CEI148A_ATV_S", 13.8, 1,     5577.3,   -5.6,   0.70001, 2,    5577.29, -125.6,   0.70001, 3,    5577.29,  114.4,   0.70001
"SCN_CN15_9020_CEI148A_ATV", 13.8, 1,     5577.3,   -5.6,   0.70001, 2,    5577.29, -125.6,   0.70001, 3,    5577.29,  114.4,   0.70001
"SCN_CN15_9019_CEI148A_ATV", 13.8, 1,    5577.29,   -5.6,   0.70001, 2,    5577.28, -125.6,   0.70001, 3,    5577.28,  114.4,   0.70001
"SCN_CN15_9001_CEI148A_ATV", 13.8, 1,     5574.4,   -5.6,   0.69965, 2,    5574.39, -125.6,   0.69965, 3,    5574.39,  114.4,   0.69965
"SCN_CN15_9002_CEI148A_ATV", 13.8, 1,    5574.45,   -5.6,   0.69965, 2,    5574.44, -125.6,   0.69965, 3,    5574.44,  114.4,   0.69965
"SCN_CN15_9003_CEI148A_ATV", 13.8, 1,    5574.47,   -5.6,   0.69966, 2,    5574.47, -125.6,   0.69966, 3,    5574.46,  114.4,   0.69966
"SCN_CN15_9005_CEI148A_ATV", 13.8, 1,     5574.5,   -5.6,   0.69966, 2,    5574.49, -125.6,   0.69966, 3,    5574.49,  114.4,   0.69966
"SCN_CN15_9426_CEI109", 13.8, 1,     5660.3,   -5.2,   0.71043, 2,     5660.3, -125.2,   0.71043, 3,     5660.3,  114.8,   0.71043
"SCN_CN15_9004_CEI148A_ATV", 13.8, 1,    5574.52,   -5.6,   0.69966, 2,    5574.51, -125.6,   0.69966, 3,    5574.51,  114.4,   0.69966
"SCN_CN15_9143_CEI220_ATV", 13.8, 1,    5754.49,   -4.9,   0.72225, 2,    5754.48, -124.9,   0.72225, 3,    5754.48,  115.1,   0.72225
"SCN_CN15_9144_CEI220_ATV", 13.8, 1,    5754.41,   -4.9,   0.72224, 2,     5754.4, -124.9,   0.72224, 3,     5754.4,  115.1,   0.72224
"SCN_CN15_9006_CEI148A_ATV", 13.8, 1,    5574.58,   -5.6,   0.69967, 2,    5574.57, -125.6,   0.69967, 3,    5574.57,  114.4,   0.69967
"SCN_CN15_9007_CEI148A_ATV", 13.8, 1,    5574.64,   -5.6,   0.69968, 2,    5574.63, -125.6,   0.69968, 3,    5574.63,  114.4,   0.69968
"SCN_CN15_9008_CEI148A_ATV", 13.8, 1,    5574.74,   -5.6,   0.69969, 2,    5574.73, -125.6,   0.69969, 3,    5574.73,  114.4,   0.69969
"SCN_CN15_9010_CEI148A_ATV", 13.8, 1,     5574.9,   -5.6,   0.69971, 2,     5574.9, -125.6,   0.69971, 3,    5574.89,  114.4,   0.69971
"SCN_CN15_9009_CEI148A_ATV", 13.8, 1,    5574.73,   -5.6,   0.69969, 2,    5574.72, -125.6,   0.69969, 3,    5574.72,  114.4,   0.69969
"SCN_CN15_9011_CEI148A_ATV", 13.8, 1,       5575,   -5.6,   0.69972, 2,    5574.99, -125.6,   0.69972, 3,    5574.99,  114.4,   0.69972
"SCN_CN15_9012_CEI148A_ATV", 13.8, 1,     5575.1,   -5.6,   0.69974, 2,    5575.09, -125.6,   0.69973, 3,    5575.09,  114.4,   0.69973
"SCN_CN15_9013_CEI148A_ATV", 13.8, 1,    5575.25,   -5.6,   0.69976, 2,    5575.25, -125.6,   0.69975, 3,    5575.24,  114.4,   0.69975
"SCN_CN15_9014_CEI148A_ATV", 13.8, 1,    5575.46,   -5.6,   0.69978, 2,    5575.45, -125.6,   0.69978, 3,    5575.45,  114.4,   0.69978
"SCN_CN15_9015_CEI148A_ATV", 13.8, 1,    5575.67,   -5.6,   0.69981, 2,    5575.66, -125.6,   0.69981, 3,    5575.66,  114.4,   0.69981
"SCN_CN15_9427_CEI109", 13.8, 1,     5660.2,   -5.2,   0.71042, 2,    5660.19, -125.2,   0.71042, 3,    5660.19,  114.8,   0.71042
"SCN_CN15_9016_CEI148A_ATV", 13.8, 1,    5575.88,   -5.6,   0.69983, 2,    5575.87, -125.6,   0.69983, 3,    5575.87,  114.4,   0.69983
"SCN_CN15_9017_CEI148A_ATV", 13.8, 1,    5575.98,   -5.6,   0.69985, 2,    5575.97, -125.6,   0.69984, 3,    5575.97,  114.4,   0.69984
"SCN_CN15_9018_CEI148A_ATV", 13.8, 1,     5576.1,   -5.6,   0.69986, 2,    5576.09, -125.6,   0.69986, 3,    5576.09,  114.4,   0.69986
"SCN_CN15_9020_CEI69A", 13.8, 1,    5576.41,   -5.6,    0.6999, 2,     5576.4, -125.6,    0.6999, 3,     5576.4,  114.4,    0.6999
"SCN_CN15_9018_CEI148A_ATV_S", 13.8, 1,     5576.1,   -5.6,   0.69986, 2,    5576.09, -125.6,   0.69986, 3,    5576.09,  114.4,   0.69986
"SCN_CN15_9019_CEI69A", 13.8, 1,    5576.31,   -5.6,   0.69989, 2,     5576.3, -125.6,   0.69989, 3,     5576.3,  114.4,   0.69989
"SCN_CN15_9018_CEI69A", 13.8, 1,    5576.22,   -5.6,   0.69988, 2,    5576.21, -125.6,   0.69988, 3,    5576.21,  114.4,   0.69988
"SCN_CN15_9017_CEI69A", 13.8, 1,    5576.15,   -5.6,   0.69987, 2,    5576.14, -125.6,   0.69987, 3,    5576.14,  114.4,   0.69987
"SCN_CN15_9016_CEI69A", 13.8, 1,    5576.13,   -5.6,   0.69987, 2,    5576.12, -125.6,   0.69986, 3,    5576.12,  114.4,   0.69986
"SCN_CN15_9015_CEI69A", 13.8, 1,    5576.13,   -5.6,   0.69987, 2,    5576.12, -125.6,   0.69986, 3,    5576.12,  114.4,   0.69986
"SCN_CN15_9428_CEI109", 13.8, 1,    5660.07,   -5.2,    0.7104, 2,    5660.07, -125.2,    0.7104, 3,    5660.07,  114.8,    0.7104
"SCN_CN15_9012_CEI69A_S", 13.8, 1,     5576.1,   -5.6,   0.69986, 2,    5576.09, -125.6,   0.69986, 3,    5576.09,  114.4,   0.69986
"SCN_CN15_9012_CEI69A", 13.8, 1,     5576.1,   -5.6,   0.69986, 2,    5576.09, -125.6,   0.69986, 3,    5576.09,  114.4,   0.69986
"SCN_CN15_9013_CEI69A", 13.8, 1,    5576.08,   -5.6,   0.69986, 2,    5576.07, -125.6,   0.69986, 3,    5576.07,  114.4,   0.69986
"SCN_CN15_9014_CEI69A", 13.8, 1,    5576.07,   -5.6,   0.69986, 2,    5576.06, -125.6,   0.69986, 3,    5576.06,  114.4,   0.69986
"SCN_CN15_9011_CEI69A", 13.8, 1,     5576.1,   -5.6,   0.69986, 2,    5576.09, -125.6,   0.69986, 3,    5576.09,  114.4,   0.69986
"SCN_CN15_9073_CEIRJ006_ATV", 13.8, 1,    5581.16,   -5.5,    0.7005, 2,    5581.15, -125.5,   0.70049, 3,    5581.15,  114.5,   0.70049
"SCN_CN15_9091_CEI148_ATV", 13.8, 1,    5581.15,   -5.5,   0.70049, 2,    5581.14, -125.5,   0.70049, 3,    5581.14,  114.5,   0.70049
"SCN_CN15_9092_CEI148_ATV", 13.8, 1,    5581.13,   -5.5,   0.70049, 2,    5581.13, -125.5,   0.70049, 3,    5581.12,  114.5,   0.70049
"SCN_CN15_9089_CEI148_ATV", 13.8, 1,    5581.13,   -5.5,   0.70049, 2,    5581.12, -125.5,   0.70049, 3,    5581.12,  114.5,   0.70049
"SCN_CN15_9042_CEI69A", 13.8, 1,    5581.24,   -5.5,   0.70051, 2,    5581.23, -125.5,    0.7005, 3,    5581.23,  114.5,    0.7005
"SCN_CN15_9100_CEI072", 13.8, 1,    6844.51,   -2.4,   0.85906, 2,    6844.51, -122.4,   0.85906, 3,    6844.51,  117.6,   0.85906
"SCN_CN15_9101_CEI072", 13.8, 1,    6844.42,   -2.4,   0.85905, 2,    6844.41, -122.4,   0.85905, 3,    6844.41,  117.6,   0.85905
"SCN_CN15_9102_CEI072", 13.8, 1,    6844.32,   -2.4,   0.85904, 2,    6844.31, -122.4,   0.85904, 3,    6844.31,  117.6,   0.85904
"SCN_CN15_9103_CEI072", 13.8, 1,    6844.21,   -2.4,   0.85902, 2,    6844.21, -122.4,   0.85902, 3,    6844.21,  117.6,   0.85902
"SCN_CN15_9104_CEI072", 13.8, 1,    6844.12,   -2.4,   0.85901, 2,    6844.11, -122.4,   0.85901, 3,    6844.11,  117.6,   0.85901
"SCN_CN15_9105_CEI072", 13.8, 1,    6844.01,   -2.4,     0.859, 2,    6844.01, -122.4,     0.859, 3,    6844.01,  117.6,     0.859
"SCN_CN15_9491_CEI109", 13.8, 1,    5601.16,   -5.5,   0.70301, 2,    5601.15, -125.5,   0.70301, 3,    5601.15,  114.5,   0.70301
"SCN_CN15_9492_CEI109", 13.8, 1,    5601.04,   -5.5,   0.70299, 2,    5601.03, -125.5,   0.70299, 3,    5601.03,  114.5,   0.70299
"SCN_CN15_9106_CEI072", 13.8, 1,    6843.92,   -2.4,   0.85899, 2,    6843.92, -122.4,   0.85899, 3,    6843.92,  117.6,   0.85899
"SCN_CN15_9107_CEI072", 13.8, 1,    6843.72,   -2.4,   0.85896, 2,    6843.72, -122.4,   0.85896, 3,    6843.72,  117.6,   0.85896
"SCN_CN15_9108_CEI072", 13.8, 1,    6843.57,   -2.4,   0.85894, 2,    6843.57, -122.4,   0.85894, 3,    6843.57,  117.6,   0.85894
"SCN_CN15_9109_CEI072", 13.8, 1,    6843.49,   -2.4,   0.85893, 2,    6843.49, -122.4,   0.85893, 3,    6843.49,  117.6,   0.85893
"SCN_CN15_9110_CEI072", 13.8, 1,     6843.4,   -2.4,   0.85892, 2,     6843.4, -122.4,   0.85892, 3,     6843.4,  117.6,   0.85892
"SCN_CN15_9111_CEI072", 13.8, 1,     6843.3,   -2.4,   0.85891, 2,     6843.3, -122.4,   0.85891, 3,     6843.3,  117.6,   0.85891
"SCN_CN15_9112_CEI072", 13.8, 1,     6843.2,   -2.4,    0.8589, 2,     6843.2, -122.4,    0.8589, 3,     6843.2,  117.6,    0.8589
"SCN_CN15_9113_CEI072", 13.8, 1,    6843.09,   -2.4,   0.85888, 2,    6843.09, -122.4,   0.85888, 3,    6843.09,  117.6,   0.85888
...
"SCN_CN15_592-0899-22", 13.8, 1,    5971.26,   -4.1,   0.74946, 2,    5971.26, -124.1,   0.74946, 3,    5971.26,  115.9,   0.74946
"SCN_CN15_592-0899-22_S", 13.8, 1,    5971.26,   -4.1,   0.74946, 2,    5971.26, -124.1,   0.74946, 3,    5971.26,  115.9,   0.74946
"SCN_CN15_9013_CEI69B", 13.8, 1,    5988.37,   -4.0,   0.75161, 2,    5988.36, -124.0,   0.75161, 3,    5988.37,  116.0,   0.75161
"SCN_CN15_9015_CEI69B_S", 13.8, 1,    5981.19,   -4.1,   0.75071, 2,    5981.18, -124.1,    0.7507, 3,    5981.19,  115.9,    0.7507
"SCN_CN15_9012_CEI69B", 13.8, 1,    5997.01,   -4.0,   0.75269, 2,       5997, -124.0,   0.75269, 3,       5997,  116.0,   0.75269
"SCN_CN15_9011_CEI69B", 13.8, 1,    6005.48,   -4.0,   0.75375, 2,    6005.47, -124.0,   0.75375, 3,    6005.47,  116.0,   0.75375
"SCN_CN15_9162_CEI068", 13.8, 1,    6016.13,   -4.0,   0.75509, 2,    6016.12, -124.0,   0.75509, 3,    6016.12,  116.0,   0.75509
"SCN_CN15_9163_CEI068", 13.8, 1,    6027.29,   -3.9,   0.75649, 2,    6027.28, -123.9,   0.75649, 3,    6027.28,  116.1,   0.75649
"SCN_CN15_9164_CEI068", 13.8, 1,    6046.93,   -3.9,   0.75896, 2,    6046.93, -123.9,   0.75896, 3,    6046.93,  116.1,   0.75896
"SCN_CN15_9451_CEI109", 13.8, 1,    5659.23,   -5.2,    0.7103, 2,    5659.23, -125.2,   0.71029, 3,    5659.23,  114.8,   0.71029
"SCN_CN15_9169_CEI068", 13.8, 1,    6065.82,   -3.9,   0.76133, 2,    6065.81, -123.9,   0.76133, 3,    6065.81,  116.1,   0.76133
"SCN_CN15_9170_CEI068", 13.8, 1,    6065.99,   -3.9,   0.76135, 2,    6065.98, -123.9,   0.76135, 3,    6065.98,  116.1,   0.76135
"SCN_CN15_9170_CEI068_S", 13.8, 1,    6065.99,   -3.9,   0.76135, 2,    6065.98, -123.9,   0.76135, 3,    6065.98,  116.1,   0.76135
"SCN_CN15_9171_CEI068", 13.8, 1,     6086.3,   -3.8,    0.7639, 2,     6086.3, -123.8,    0.7639, 3,     6086.3,  116.2,    0.7639
"SCN_CN15_9172_CEI068", 13.8, 1,     6108.8,   -3.8,   0.76672, 2,    6108.79, -123.8,   0.76672, 3,    6108.79,  116.2,   0.76672
"SCN_CN15_9182_CEI068", 13.8, 1,    6134.94,   -3.7,      0.77, 2,    6134.93, -123.7,      0.77, 3,    6134.93,  116.3,      0.77
"SCN_CN15_9181_CEI068", 13.8, 1,     6134.9,   -3.7,      0.77, 2,    6134.89, -123.7,      0.77, 3,    6134.89,  116.3,      0.77
"SCN_CN15_9182_CEI068_S", 13.8, 1,    6134.94,   -3.7,      0.77, 2,    6134.93, -123.7,      0.77, 3,    6134.93,  116.3,      0.77
"SCN_CN15_9183_CEI068", 13.8, 1,    6162.24,   -3.6,   0.77343, 2,    6162.23, -123.6,   0.77343, 3,    6162.23,  116.4,   0.77343
"SCN_CN15_9183_CEI068_S", 13.8, 1,    6162.24,   -3.6,   0.77343, 2,    6162.23, -123.6,   0.77343, 3,    6162.23,  116.4,   0.77343
"SCN_CN15_9186_CEI068", 13.8, 1,    6182.49,   -3.6,   0.77597, 2,    6182.48, -123.6,   0.77597, 3,    6182.48,  116.4,   0.77597
"SCN_CN15_9107_CEI068", 13.8, 1,       6195,   -3.6,   0.77754, 2,    6194.99, -123.6,   0.77754, 3,    6194.99,  116.4,   0.77754
"SCN_CN15_9450_CEI109", 13.8, 1,     5659.2,   -5.2,   0.71029, 2,    5659.19, -125.2,   0.71029, 3,    5659.19,  114.8,   0.71029
"SCN_CN15_9103_CEI068", 13.8, 1,    6208.77,   -3.5,   0.77927, 2,    6208.76, -123.5,   0.77927, 3,    6208.77,  116.5,   0.77927
"SCN_CN15_9092_CEI068", 13.8, 1,    6208.54,   -3.5,   0.77924, 2,    6208.53, -123.5,   0.77924, 3,    6208.53,  116.5,   0.77924
"SCN_CN15_9091_CEI068", 13.8, 1,    6208.29,   -3.6,   0.77921, 2,    6208.28, -123.6,   0.77921, 3,    6208.28,  116.4,   0.77921
"SCN_CN15_9090_CEI068", 13.8, 1,    6207.82,   -3.6,   0.77915, 2,    6207.81, -123.6,   0.77915, 3,    6207.81,  116.4,   0.77915
"SCN_CN15_9089_CEI068_S", 13.8, 1,    6207.53,   -3.6,   0.77911, 2,    6207.52, -123.6,   0.77911, 3,    6207.52,  116.4,   0.77911
"SCN_CN15_9086_CEI068", 13.8, 1,    6207.14,   -3.6,   0.77906, 2,    6207.14, -123.6,   0.77906, 3,    6207.14,  116.4,   0.77906
"SCN_CN15_9085_CEI068", 13.8, 1,    6206.65,   -3.6,     0.779, 2,    6206.65, -123.6,     0.779, 3,    6206.65,  116.4,     0.779
"SCN_CN15_9086_CEI068_S", 13.8, 1,    6207.14,   -3.6,   0.77906, 2,    6207.14, -123.6,   0.77906, 3,    6207.14,  116.4,   0.77906
"SCN_CN15_9082_CEI068", 13.8, 1,    6206.08,   -3.6,   0.77893, 2,    6206.07, -123.6,   0.77893, 3,    6206.07,  116.4,   0.77893
"SCN_CN15_9081_CEI068", 13.8, 1,    6205.49,   -3.6,   0.77886, 2,    6205.48, -123.6,   0.77886, 3,    6205.48,  116.4,   0.77886
"SCN_CN15_9080_CEI068", 13.8, 1,    6204.91,   -3.6,   0.77878, 2,     6204.9, -123.6,   0.77878, 3,     6204.9,  116.4,   0.77878
"SCN_CN15_9026_CEI201_ATV", 13.8, 1,    5595.03,   -5.5,   0.70224, 2,    5595.02, -125.5,   0.70224, 3,    5595.02,  114.5,   0.70224
"SCN_CN15_9027_CEI201_ATV", 13.8, 1,    5595.27,   -5.5,   0.70227, 2,    5595.26, -125.5,   0.70227, 3,    5595.26,  114.5,   0.70227
"SCN_CN15_9449_CEI109", 13.8, 1,    5659.16,   -5.2,   0.71029, 2,    5659.15, -125.2,   0.71029, 3,    5659.15,  114.8,   0.71029
"SCN_CN15_9079_CEI068", 13.8, 1,    6204.34,   -3.6,   0.77871, 2,    6204.33, -123.6,   0.77871, 3,    6204.33,  116.4,   0.77871
"SCN_CN15_9078_CEI068", 13.8, 1,    6203.77,   -3.6,   0.77864, 2,    6203.76, -123.6,   0.77864, 3,    6203.76,  116.4,   0.77864
"SCN_CN15_9077_CEI068", 13.8, 1,    6203.19,   -3.6,   0.77857, 2,    6203.18, -123.6,   0.77857, 3,    6203.18,  116.4,   0.77857
"SCN_CN15_9076_CEI068", 13.8, 1,    6202.65,   -3.6,    0.7785, 2,    6202.64, -123.6,    0.7785, 3,    6202.65,  116.4,    0.7785
"SCN_CN15_9075_CEI068", 13.8, 1,    6202.12,   -3.6,   0.77843, 2,    6202.11, -123.6,   0.77843, 3,    6202.11,  116.4,   0.77843
"SCN_CN15_9074_CEI068", 13.8, 1,    6201.57,   -3.6,   0.77836, 2,    6201.56, -123.6,   0.77836, 3,    6201.56,  116.4,   0.77836
"SCN_CN15_9073_CEI068", 13.8, 1,    6201.01,   -3.6,   0.77829, 2,       6201, -123.6,   0.77829, 3,       6201,  116.4,   0.77829
"SCN_CN15_9072_CEI068", 13.8, 1,    6200.47,   -3.6,   0.77823, 2,    6200.46, -123.6,   0.77823, 3,    6200.46,  116.4,   0.77823
"SCN_CN15_9071_CEI068", 13.8, 1,    6199.94,   -3.6,   0.77816, 2,    6199.94, -123.6,   0.77816, 3,    6199.94,  116.4,   0.77816
"SCN_CN15_9070_CEI068", 13.8, 1,    6199.56,   -3.6,   0.77811, 2,    6199.55, -123.6,   0.77811, 3,    6199.55,  116.4,   0.77811
...